 PDE   1973   01 06 150538.50  49.35  155.48  34 4.70 mb GS   .. . .......       PDE   1973   01 27 040441.60  50.40  156.85  47 5.20 mb GS   .. . .......       PDE   1973   02 04 011608.20  50.92  157.20  33 4.80 mb GS   .. . .......       PDE   1973   02 08 023509     50.47  156.43  80 4.50 mb GS   .. . .......       PDE   1973   02 10 165533.90  49.90  156.08  33 5.50 mb GS   .. . .......       PDE   1973   02 15 221737     47.00  153.82  33 4.80 mb GS   .. . .......       PDE   1973   02 26 081657.60  49.41  155.62  46 5.00 mb GS   .. . .......       PDE   1973   02 28 063749.50  50.49  156.58  27 7.20 Ms GS   2F . .T.....       PDE   1973   02 28 064930.60  50.41  157.24  33 4.90 mb GS   .. . .......       PDE   1973   02 28 065039.70  50.11  156.93  33 5.30 mb GS   .. . .......       PDE   1973   02 28 065538.70  50.08  156.94  48 5.50 mb GS   .. . .......       PDE   1973   02 28 101841.30  50.18  156.72  55 4.90 mb GS   .. . .......       PDE   1973   02 28 113242.60  50.12  156.92  48 5.20 mb GS   .. . .......       PDE   1973   03 01 021903.10  49.88  157.29  30 5.50 mb GS   .. . .......       PDE   1973   03 01 044848.90  49.84  157.30  51 4.50 mb GS   .. . .......       PDE   1973   03 03 024209     50.44  156.28  59 5.50 mb GS   .. . .......       PDE   1973   03 04 082836.50  50.74  157.08  58 4.60 mb GS   .. . .......       PDE   1973   03 06 183205.10  49.98  156.79  33 5.00 mb GS   .. . .......       PDE   1973   03 09 020828.40  48.61  154.22  33 4.40 mb GS   .. . .......       PDE   1973   03 09 135841.30  49.98  157.07  33 4.60 mb GS   .. . .......       PDE   1973   03 10 044441.60  50.70  156.76  33 4.70 mb GS   .. . .......       PDE   1973   03 12 111423.60  50.10  156.74  49 5.70 mb GS   .. . .......       PDE   1973   03 12 191319.30  50.22  157.23  68 4.20 mb GS   .. . .......       PDE   1973   03 12 193921     50.83  157.10  54 6.20 UKPAS   .. . .......       PDE   1973   03 17 001019     46.17  153.27  33 4.30 mb GS   .. . .......       PDE   1973   03 21 022421.30  50.82  157.16  55 5.20 mb GS   .. . .......       PDE   1973   03 21 214612.20  48.57  153.67 105 4.90 mb GS   .. . .......       PDE   1973   03 25 085615.20  50.24  156.86  40 5.70 UKBRK   .. . .......       PDE   1973   03 25 133458.60  45.97  151.12  78 4.70 mb GS   .. . .......       PDE   1973   03 31 204531.30  50.18  157.05  44 4.80 mb GS   .. . .......       PDE   1973   04 03 105026.30  45.85  151.12  33 5.00 mb GS   .. . .......       PDE   1973   04 08 215459.20  47.00  152.29 104 5.60 mb GS   .. . .......       PDE   1973   04 09 115156.20  51.34  151.85 300 4.00 mb GS   .. . .......       PDE   1973   04 12 121715     49.98  155.99  55 5.20 mb GS   .. . .......       PDE   1973   04 12 134915.80  50.89  157.44  52 6.50 UKPAS   .. . .......       PDE   1973   04 17 220949.10  50.81  157.55  41 5.60 mb GS   .. . .......       PDE   1973   04 23 195915     47.15  152.70  58 4.30 mb GS   .. . .......       PDE   1973   05 03 043637.70  50.98  157.81  33 4.40 mb GS   .. . .......       PDE   1973   05 10 191620.10  50.43  157.30  42 4.90 mb GS   .. . .......       PDE   1973   05 21 091645.10  47.51  152.37 137 4.90 mb GS   .. . .......       PDE   1973   05 24 205415.80  45.46  150.68  33 4.80 mb GS   .. . .......       PDE   1973   05 26 081545     43.89  151.98  33 4.30 mb GS   .. . .......       PDE   1973   06 08 002305.40  45.41  151.02  33 4.80 mb GS   .. . .......       PDE   1973   06 09 034309.10  44.06  151.66  34 5.00 mb GS   .. . .......       PDE   1973   06 13 002049.50  46.97  150.99 142 5.50 mb GS   .. . .......       PDE   1973   06 29 121922.70  49.18  156.16  33 4.80 mb GS   .. . .......       PDE   1973   07 01 011434.80  49.30  152.62 256 3.90 mb GS   .. . .......       PDE   1973   07 06 233828.10  50.15  156.26  33 4.50 mb GS   .. . .......       PDE   1973   07 10 083247.80  51.80  159.30  33 4.20 mb GS   .. . .......       PDE   1973   07 10 090937.10  51.69  159.44  31 4.50 mb GS   .. . .......       PDE   1973   07 11 001845.30  48.19  154.97  33 4.60 mb GS   .. . .......       PDE   1973   07 29 091103.80  45.31  150.05  46 5.10 mb GS   .. . .......       PDE   1973   08 17 005311.40  46.41  152.68  52 4.80 mb GS   .. . .......       PDE   1973   10 03 103551.20  45.54  151.78  33 5.20 mb GS   .. . .......       PDE   1973   10 03 125452.30  45.74  151.75  33 4.70 mb GS   .. . .......       PDE   1973   10 04 133844.60  45.75  151.71  33 4.80 mb GS   .. . .......       PDE   1973   10 04 185701.60  45.84  151.74  33 4.30 mb GS   .. . .......       PDE   1973   10 08 052627.60  45.66  151.65  60 4.50 mb GS   .. . .......       PDE   1973   10 08 082620.60  45.79  151.73  60 4.50 mb GS   .. . .......       PDE   1973   10 11 145553.60  49.34  154.80  75 4.80 mb GS   .. . .......       PDE   1973   11 08 085910     50.05  156.31  33 6.10 Ms GS   .. . .......       PDE   1973   11 11 024306.20  49.97  156.36  51 6.00 mb GS   .. . .......       PDE   1973   11 13 024714.90  49.60  151.21 326 5.10 mb GS   .. . .......       PDE   1973   11 21 210520.40  46.13  151.45  84 5.60 mb GS   .. . .......       PDE   1973   12 09 072744.70  50.38  156.46  33 4.90 mb GS   .. . .......       PDE   1973   12 15 180701.60  45.56  151.13   1 4.40 mb GS   .. . .......       PDE   1973   12 17 215402.50  48.09  154.51  33 5.60 mb GS   .. . .......       PDE   1973   12 26 125258.70  49.48  155.74  56 4.90 mb GS   .. . .......       PDE   1974   01 04 204104.20  48.26  154.92  34 4.60 mb GS   .. . .......       PDE   1974   01 09 024946.20  51.65  159.64  33 5.40 mb GS   .. . .......       PDE   1974   01 10 023701.50  51.65  159.58  33 4.90 mb GS   .. . .......       PDE   1974   01 10 051854.30  51.59  159.72  33 5.30 mb GS   .. . .......       PDE   1974   01 11 092225.50  51.68  159.49  33 4.60 mb GS   .. . .......       PDE   1974   01 14 203143     48.76  154.96  14 5.50 mb GS   .. . .......       PDE   1974   02 07 190407     50.00  156.40  46 5.00 mb GS   .. . .......       PDE   1974   02 09 182214.80  50.61  157.24  57 4.90 mb GS   .. . .......       PDE   1974   02 17 083432.80  50.70  156.48  62 4.60 mb GS   .. . .......       PDE   1974   03 11 113733.50  48.32  153.20 169 5.90 mb GS   .. . .......       PDE   1974   03 12 034235.30  50.79  155.43 164 4.20 mb GS   .. . .......       PDE   1974   03 15 221129.40  49.44  158.46  35 5.00 mb GS   .. . .......       PDE   1974   03 16 235238.80  44.96  150.23  99 4.10 mb GS   .. . .......       PDE   1974   03 23 065120.30  46.86  153.79  33 4.80 mb GS   .. . .......       PDE   1974   04 02 075908     46.60  153.84  33 4.30 mb GS   .. . .......       PDE   1974   04 07 060156.60  46.79  153.64  33 4.50 mb GS   .. . .......       PDE   1974   04 07 063312     46.76  153.84  19 4.70 mb GS   .. . .......       PDE   1974   04 17 054535.20  49.77  157.10  33 4.60 mb GS   .. . .......       PDE   1974   04 17 061522.70  49.87  156.90  33 4.60 mb GS   .. . .......       PDE   1974   04 17 061738.10  49.74  157.03  33 4.50 mb GS   .. . .......       PDE   1974   04 22 134150.40  50.32  156.70  45 4.80 mb GS   .. . .......       PDE   1974   04 24 235645     48.07  153.92  64 4.80 mb GS   .. . .......       PDE   1974   04 30 010125.10  49.78  155.88  50 4.40 mb GS   .. . .......       PDE   1974   05 02 223615.30  51.62  159.49  59 4.60 mb GS   .. . .......       PDE   1974   05 04 215710     51.58  159.67  33 4.60 mb GS   .. . .......       PDE   1974   05 07 210341.50  47.56  156.26  33 4.70 mb GS   .. . .......       PDE   1974   05 09 052534.50  51.35  159.79  33 4.10 mb GS   .. . .......       PDE   1974   05 13 014228.60  50.99  155.88 177 4.30 mb GS   .. . .......       PDE   1974   05 14 081042.60  51.29  150.73 523 4.20 mb GS   .. . .......       PDE   1974   05 14 105418.70  51.22  157.72  53 4.70 mb GS   .. . .......       PDE   1974   05 15 185955.90  50.05  156.11  56 6.50 UKPAS   .. . .......       PDE   1974   05 20 001419.70  51.37  159.70  33 4.60 mb GS   .. . .......       PDE   1974   05 27 044123.60  50.83  157.35  47 5.60 mb GS   .. . .......       PDE   1974   05 30 010509     47.98  154.53  33 4.60 mb GS   .. . .......       PDE   1974   06 06 170141.90  45.00  150.76  33 4.90 mb GS   .. . .......       PDE   1974   06 08 030821     47.05  150.86 261 4.10 mb GS   .. . .......       PDE   1974   06 10 085643     46.79  152.79  33 4.60 mb GS   .. . .......       PDE   1974   06 17 020050     48.42  154.12  33 4.60 mb GS   .. . .......       PDE   1974   06 17 021829.50  48.23  154.35  33 5.10 mb GS   .. . .......       PDE   1974   06 27 145617.90  51.91  156.87 130 4.60 mb GS   .. . .......       PDE   1974   07 07 125317.30  46.63  152.72  33 5.20 mb GS   .. . .......       PDE   1974   07 14 162526.80  51.94  152.41 378 4.50 mb GS   .. . .......       PDE   1974   07 17 052548.70  46.55  151.35 103 4.40 mb GS   .. . .......       PDE   1974   07 22 053408.50  51.89  151.13 460 4.60 mb GS   .. . .......       PDE   1974   07 23 215057.30  49.38  155.74  33 4.50 mb GS   .. . .......       PDE   1974   07 28 113459.70  46.29  153.33  52 6.30 UKPAS   2F . .......       PDE   1974   07 28 115251.90  46.33  153.43  60 5.00 mb GS   .. . .......       PDE   1974   07 28 115946     46.58  153.32  49 4.80 mb GS   .. . .......       PDE   1974   07 28 120750     46.17  153.26  46 5.30 mb GS   .. . .......       PDE   1974   07 28 121939     46.24  153.35  33 4.80 mb GS   .. . .......       PDE   1974   07 28 130417.50  46.35  153.27  44 4.80 mb GS   .. . .......       PDE   1974   07 28 133139.30  46.27  153.51  66 5.30 mb GS   .. . .......       PDE   1974   07 28 134138.80  46.32  153.32  46 5.40 mb GS   .. . .......       PDE   1974   07 28 151034.70  46.22  153.14  46 4.50 mb GS   .. . .......       PDE   1974   07 28 155706.80  45.97  153.05  45 4.00 mb GS   .. . .......       PDE   1974   07 28 162255.30  45.95  153.10  33 4.70 mb GS   .. . .......       PDE   1974   07 28 162732.60  46.09  153.27  52 5.10 mb GS   .. . .......       PDE   1974   07 28 163355.60  46.25  153.23  49 5.00 Ms GS   .. . .......       PDE   1974   07 28 165632.40  46.20  152.98  43 4.30 mb GS   .. . .......       PDE   1974   07 28 170540     46.27  153.11  42 4.80 mb GS   .. . .......       PDE   1974   07 28 180045.40  46.42  153.36  46 4.90 mb GS   .. . .......       PDE   1974   07 28 181919.10  46.00  153.38  40 4.20 mb GS   .. . .......       PDE   1974   07 29 011451     46.88  152.81  54 5.00 mb GS   .. . .......       PDE   1974   07 29 014815.10  46.81  152.75  33 4.70 mb GS   .. . .......       PDE   1974   07 29 021347.20  46.24  153.19  42 4.80 mb GS   .. . .......       PDE   1974   07 29 031516.70  46.22  153.05  38 5.80 Ms GS   .. . .......       PDE   1974   07 29 035928.80  46.21  153.22  33 4.30 mb GS   .. . .......       PDE   1974   07 29 071626.10  46.12  153.09  33 6.20 Ms GS   .. . .......       PDE   1974   07 29 092848.40  46.33  153.33  33 5.50 Ms GS   .. . .......       PDE   1974   07 29 142116.20  46.15  152.91  36 4.90 mb GS   .. . .......       PDE   1974   07 29 190957.70  45.99  153.18  42 4.60 mb GS   .. . .......       PDE   1974   07 29 195041.40  45.98  153.01  33 4.90 mb GS   .. . .......       PDE   1974   07 30 223944.50  46.22  153.17  42 5.00 mb GS   .. . .......       PDE   1974   08 01 223921     49.76  155.97  41 5.30 mb GS   .. . .......       PDE   1974   08 03 070034.30  49.85  155.94  62 4.50 mb GS   .. . .......       PDE   1974   08 03 084839.90  46.85  152.52  67 4.40 mb GS   .. . .......       PDE   1974   08 03 123205.30  46.64  152.79  56 4.80 mb GS   .. . .......       PDE   1974   08 04 003356     46.09  153.44  60 4.50 mb GS   .. . .......       PDE   1974   08 06 164922.20  46.76  150.42 166 5.20 mb GS   .. . .......       PDE   1974   08 10 192636.80  46.24  153.19  33 4.40 mb GS   .. . .......       PDE   1974   08 12 220440.20  47.51  155.96  33 4.60 mb GS   .. . .......       PDE   1974   08 13 143119.40  45.91  152.68  33 4.60 mb GS   .. . .......       PDE   1974   08 16 014735.10  46.78  153.10  33 4.40 mb GS   .. . .......       PDE   1974   09 03 014556.90  49.67  156.01  22 5.20 mb GS   .. . .......       PDE   1974   09 14 023922.50  49.35  153.45 180 4.80 mb GS   .. . .......       PDE   1974   09 16 215550.80  49.62  155.94  48 5.50 mb GS   .. . .......       PDE   1974   10 02 145630.10  51.67  158.08  51 5.20 mb GS   .. . .......       PDE   1974   10 04 184247     47.73  153.72  63 4.50 mb GS   .. . .......       PDE   1974   10 06 012301.10  50.01  156.43  50 4.50 mb GS   .. . .......       PDE   1974   10 08 023949.50  49.34  150.84 299 4.60 mb GS   .. . .......       PDE   1974   10 09 073202.20  44.72  150.12  49 6.70 UKPAS   5F . .......       PDE   1974   10 19 094031     47.27  152.02 171 4.40 mb GS   .. . .......       PDE   1974   10 31 063810.20  50.41  150.42 434 4.40 mb GS   .. . .......       PDE   1974   11 07 150124.60  50.86  156.33  33 4.40 mb GS   .. . .......       PDE   1974   11 09 054624.20  48.12  152.88 153 4.80 mb GS   .. . .......       PDE   1974   11 12 031631.70  45.46  150.91  33 4.80 mb GS   .. . .......       PDE   1974   11 14 062532.20  46.78  153.27  33 4.30 mb GS   .. . .......       PDE   1974   12 03 191850.20  48.08  153.75  36 5.00 mb GS   .. . .......       PDE   1974   12 07 033753     50.53  156.60  33 4.40 mb GS   .. . .......       PDE   1974   12 14 102227.10  47.01  154.07  33 4.50 mb GS   .. . .......       PDE   1974   12 14 123131.80  47.27  154.05  33 5.00 mb GS   .. . .......       PDE   1974   12 16 103547.40  49.63  155.93  33 4.60 mb GS   .. . .......       PDE   1974   12 20 121647.20  50.77  157.26  33 5.10 mb GS   .. . .......       PDE   1975   01 02 085900.50  46.88  151.56  52 5.70 mb GS   .. . .......       PDE   1975   01 03 042445.10  46.40  153.02  36 4.20 mb GS   .. . .......       PDE   1975   01 04 002043     51.14  158.01  33 5.10 mb GS   .. . .......       PDE   1975   01 07 014624.60  46.16  150.86 122 4.70 mb GS   .. . .......       PDE   1975   01 17 210301     51.13  157.11   2 4.60 mb GS   .. . .......       PDE   1975   01 25 171246.90  49.65  155.46  33 4.40 mb GS   .. . .......       PDE   1975   02 03 080704     48.28  157.15  66 5.00 mb GS   .. . .......       PDE   1975   02 04 062526.10  51.55  159.61  33 4.70 mb GS   .. . .......       PDE   1975   02 05 234332.90  51.53  159.66  31 5.00 mb GS   .. . .......       PDE   1975   02 08 123750.20  45.97  152.25  33 3.90 mb GS   .. . .......       PDE   1975   02 12 101032.10  51.57  157.41 141 4.30 mb GS   .. . .......       PDE   1975   03 06 181821     51.58  159.66  33 4.70 mb GS   .. . .......       PDE   1975   03 13 161857.80  45.52  153.81  33 5.20 mb GS   .. . .......       PDE   1975   03 14 051515.20  46.34  153.12  33 5.20 mb GS   .. . .......       PDE   1975   03 14 132353.20  46.51  153.22  33 4.90 mb GS   .. . .......       PDE   1975   03 22 135456.30  45.59  150.88  33 4.90 mb GS   .. . .......       PDE   1975   03 23 194807.80  46.69  152.55  33 5.50 mb GS   .. . .......       PDE   1975   04 01 192125.80  48.18  154.84  35 5.10 mb GS   .. . .......       PDE   1975   04 08 213201.70  51.41  159.70  33 4.50 mb GS   .. . .......       PDE   1975   04 08 215044.20  51.60  159.52  33 4.90 mb GS   .. . .......       PDE   1975   04 09 210546.20  46.83  151.23  92 4.40 mb GS   .. . .......       PDE   1975   04 15 011703.90  45.71  152.77  33 4.60 mb GS   .. . .......       PDE   1975   04 16 213325.10  48.35  154.91  32 5.80 mb GS   .. . .......       PDE   1975   04 20 184837.90  51.83  159.91  33 5.00 mb GS   .. . .......       PDE   1975   04 25 142319.90  51.83  159.97  33 5.30 Ms GS   .. . .......       PDE   1975   04 29 204550     51.95  159.86  33 4.40 mb GS   .. . .......       PDE   1975   05 11 065645.10  49.33  156.15  58 5.50 mb GS   3F . .......       PDE   1975   05 11 071142.30  49.34  156.10  23 5.00 mb GS   .. . .......       PDE   1975   05 11 202152.80  49.28  156.18  45 4.90 mb GS   .. . .......       PDE   1975   05 11 203515.40  49.22  156.21  40 5.10 mb GS   .. . .......       PDE   1975   05 12 083118.20  49.27  156.26  43 4.90 mb GS   2F . .......       PDE   1975   05 12 101152.80  49.23  156.20  46 5.40 mb GS   .. . .......       PDE   1975   05 12 114306.90  49.25  156.24  45 4.60 mb GS   .. . .......       PDE   1975   05 14 114155.20  47.09  151.09 174 4.80 mb GS   .. . .......       PDE   1975   05 14 183707.10  51.12  157.78  57 5.00 mb GS   .. . .......       PDE   1975   05 19 224217     49.72  157.40  57 5.40 mb GS   3F . .......       PDE   1975   05 22 180551.30  49.50  155.91  63 4.80 mb GS   .. . .......       PDE   1975   05 28 223823.30  51.38  158.18  62 4.90 mb GS   2F . .......       PDE   1975   05 28 225451.60  46.75  153.43  44 4.70 mb GS   .. . .......       PDE   1975   05 30 102517.90  46.65  152.64  51 4.80 mb GS   .. . .......       PDE   1975   06 04 094617.90  46.71  152.39  33 4.60 mb GS   .. . .......       PDE   1975   06 07 151248.20  51.30  158.33  47 5.30 mb GS   .. . .......       PDE   1975   06 07 214824.90  49.38  155.45  57 4.60 mb GS   .. . .......       PDE   1975   06 12 001430.20  46.69  152.60  60 5.30 mb GS   .. . .......       PDE   1975   06 22 042515.30  51.99  157.58 133 5.30 mb GS   .. . .......       PDE   1975   07 02 194233.50  48.32  154.42  59 5.00 mb GS   .. . .......       PDE   1975   07 12 162818.10  51.48  150.68 478 4.20 mb GS   .. . .......       PDE   1975   07 29 140032.40  46.62  151.49  83 5.20 mb GS   .. . .......       PDE   1975   08 01 035405.20  48.32  154.74  33 4.80 mb GS   .. . .......       PDE   1975   08 01 170316.70  51.67  159.12  33 5.00 mb GS   .. . .......       PDE   1975   08 02 164000.90  49.51  156.12  56 4.30 mb GS   .. . .......       PDE   1975   08 04 185105.40  48.86  156.15  33 4.70 mb GS   .. . .......       PDE   1975   08 04 185954.80  46.09  150.85  33 4.90 mb GS   .. . .......       PDE   1975   08 10 143854.90  49.18  158.61  33 4.60 mb GS   .. . .......       PDE   1975   08 29 221520.90  49.11  156.12  53 4.40 mb GS   .. . .......       PDE   1975   09 12 152835.10  51.90  157.22  88 5.60 mb GS   .. . .......       PDE   1975   09 19 031521.10  47.04  151.86 119 5.50 mb GS   .. . .......       PDE   1975   09 28 201913.30  47.15  152.84  99 4.50 mb GS   .. . .......       PDE   1975   10 11 032618.80  46.02  151.99  33 4.50 mb GS   .. . .......       PDE   1975   10 17 225354.50  51.05  157.21  73 4.30 mb GS   .. . .......       PDE   1975   10 26 142311     46.58  153.35  33 4.50 mb GS   .. . .......       PDE   1975   10 30 223732.60  51.55  159.36  44 4.80 mb GS   .. . .......       PDE   1975   11 02 000249.30  49.40  154.05 178 4.10 mb GS   .. . .......       PDE   1975   11 09 020424     50.20  159.12  33 4.60 mb GS   .. . .......       PDE   1975   11 13 154846     50.30  156.69  69 5.10 mb GS   .. . .......       PDE   1975   12 19 230640.90  46.87  152.74  33 4.90 mb GS   .. . .......       PDE   1975   12 21 105417.70  51.94  151.58 554 6.40 UKPAS   .. . .......       PDE   1975   12 21 213622.70  44.60  150.22  33 5.00 mb GS   .. . .......       PDE   1975   12 24 184804.50  45.41  151.47  45 5.30 mb GS   .. . .......       PDE   1975   12 25 153631.50  45.43  151.37  48 5.10 mb GS   .. . .......       PDE   1975   12 25 160016.30  45.44  151.39  46 5.40 mb GS   .. . .......       PDE   1976   01 02 024642.60  46.76  152.76  53 4.50 mb GS   .. . .......       PDE   1976   01 06 205711.40  51.47  159.32  33 5.10 mb GS   .. . .......       PDE   1976   01 06 210819.30  51.60  159.33  33 6.00 Ms GS   .F . .......       PDE   1976   01 06 212344     51.51  159.46  33 4.90 mb GS   .. . .......       PDE   1976   01 06 213522     51.77  159.10  33 4.60 mb GS   .. . .......       PDE   1976   01 06 214525.10  51.69  159.17  33 5.30 mb GS   .. . .......       PDE   1976   01 06 221747.90  51.68  159.21  33 5.60 mb GS   .. . .......       PDE   1976   01 06 222412.80  51.55  159.74  33 4.80 mb GS   .. . .......       PDE   1976   01 06 232028.80  51.57  159.35  33 4.50 mb GS   .. . .......       PDE   1976   01 07 015700.80  51.62  159.19  33 5.20 mb GS   .. . .......       PDE   1976   01 07 043256.80  51.79  159.20  33 5.00 mb GS   .. . .......       PDE   1976   01 07 075859.10  51.56  159.59  33 4.90 mb GS   .. . .......       PDE   1976   01 07 080347.40  51.78  159.37  33 5.00 mb GS   .. . .......       PDE   1976   01 07 101859.10  51.74  159.36  33 4.50 mb GS   .. . .......       PDE   1976   01 07 104623.50  51.51  159.23  33 4.90 mb GS   .. . .......       PDE   1976   01 07 125814.50  51.62  159.52  33 4.50 mb GS   .. . .......       PDE   1976   01 07 133701.40  51.53  159.27  63 5.00 mb GS   .. . .......       PDE   1976   01 07 233423.70  51.65  159.50  33 5.70 mb GS   .F . .......       PDE   1976   01 08 001916.30  51.77  159.35  33 4.80 mb GS   .. . .......       PDE   1976   01 08 033428.60  51.69  159.36  33 4.70 mb GS   .. . .......       PDE   1976   01 08 103045     51.68  159.10  33 5.50 mb GS   .F . .......       PDE   1976   01 08 141954.10  51.69  159.47  33 4.70 mb GS   .. . .......       PDE   1976   01 08 155011.30  51.41  159.77  33 5.40 mb GS   .. . .......       PDE   1976   01 09 012012     51.70  159.54  33 4.60 mb GS   .. . .......       PDE   1976   01 10 033724.10  51.62  159.46  33 5.00 mb GS   .. . .......       PDE   1976   01 10 224309.70  51.92  159.72  33 4.90 mb GS   .. . .......       PDE   1976   01 10 225123.40  51.76  159.69  33 4.80 mb GS   .. . .......       PDE   1976   01 11 104859.90  51.38  159.25  59 4.80 mb GS   .. . .......       PDE   1976   01 12 043627     51.50  159.42  33 4.70 mb GS   .. . .......       PDE   1976   01 16 083225.80  51.67  159.48  60 4.90 mb GS   .. . .......       PDE   1976   01 20 064222.90  51.55  159.51  17 4.60 mb GS   .. . .......       PDE   1976   01 21 002945.50  47.20  150.51 295 4.20 mb GS   .. . .......       PDE   1976   01 22 105025.70  51.61  159.44  22 5.00 mb GS   3F . .......       PDE   1976   01 23 004105.40  46.64  152.54  33 4.70 mb GS   .. . .......       PDE   1976   01 25 142920.70  44.94  150.12  46 4.80 mb GS   .. . .......       PDE   1976   01 26 173519.40  44.73  150.08  33 4.90 mb GS   .. . .......       PDE   1976   01 27 044735.30  44.53  150.02  15 5.20 mb GS   .. . .......       PDE   1976   02 01 215747.50  44.31  150.07  50 4.60 mb GS   .. . .......       PDE   1976   02 02 030016.20  51.50  159.49  33 5.60 mb GS   .. . .......       PDE   1976   02 02 033046     51.47  159.40  49 5.10 mb GS   .. . .......       PDE   1976   02 02 070211.50  51.43  159.60  33 4.60 mb GS   .. . .......       PDE   1976   02 04 141930.10  45.40  152.49  33 4.70 mb GS   .. . .......       PDE   1976   02 07 150759.70  45.79  153.18  33 4.30 mb GS   .. . .......       PDE   1976   02 08 112922     45.41  153.38  33 4.80 mb GS   .. . .......       PDE   1976   02 16 124644     46.52  153.29  44 4.50 mb GS   .. . .......       PDE   1976   02 17 152215.90  49.77  156.11  17 4.40 mb GS   .. . .......       PDE   1976   02 20 135239.60  51.61  157.17 122 4.60 mb GS   .. . .......       PDE   1976   03 01 182726.80  51.65  159.14  45 4.70 mb GS   .. . .......       PDE   1976   03 25 183152.90  48.52  150.33 328 4.90 mb GS   .. . .......       PDE   1976   04 04 223829.50  49.43  150.66 332 4.70 mb GS   .. . .......       PDE   1976   04 12 041732.60  48.32  153.61 133 4.80 mb GS   .. . .......       PDE   1976   04 13 072620.20  47.15  152.52  94 5.00 mb GS   .. . .......       PDE   1976   04 18 092333.60  48.35  154.37  69 4.30 mb GS   .. . .......       PDE   1976   04 20 092744.50  47.22  154.13  33 5.20 mb GS   .. . .......       PDE   1976   04 20 194430.90  47.28  154.15  33 5.10 mb GS   .. . .......       PDE   1976   04 24 102300.20  47.21  152.53 100 4.50 mb GS   .. . .......       PDE   1976   05 02 152024.90  49.78  155.95  33 5.00 mb GS   .. . .......       PDE   1976   05 14 103028.20  48.35  153.74  93 4.70 mb GS   .. . .......       PDE   1976   05 25 080908.30  51.59  159.39  33 5.30 mb GS   .. . .......       PDE   1976   05 25 081645.80  51.61  159.36  43 5.50 mb GS   .. . .......       PDE   1976   05 31 131735.70  48.12  152.74 111 5.10 mb GS   .. . .......       PDE   1976   06 07 054915.40  48.84  154.93  33 5.10 mb GS   .. . .......       PDE   1976   06 10 101931.50  51.62  159.43  40 5.00 mb GS   .. . .......       PDE   1976   06 28 165235     48.44  157.08  17 4.70 mb GS   .. . .......       PDE   1976   06 30 125012.20  47.79  152.75 137 4.60 mb GS   .. . .......       PDE   1976   07 02 005222.50  46.56  152.75  33 4.60 mb GS   .. . .......       PDE   1976   07 11 102221.50  46.07  153.35  33 4.70 mb GS   .. . .......       PDE   1976   07 20 004832.20  48.25  154.97  34 5.10 mb GS   .. . .......       PDE   1976   07 22 065722.10  46.18  151.45  79 5.30 mb GS   .. . .......       PDE   1976   07 23 221756.50  45.27  150.14  33 5.10 mb GS   .. . .......       PDE   1976   08 04 060956.90  50.03  151.63 306 4.60 mb GS   .. . .......       PDE   1976   08 05 033059.10  46.87  153.71   9 5.20 mb GS   .. . .......       PDE   1976   08 05 060207.70  49.24  155.04  33 4.90 mb GS   .. . .......       PDE   1976   08 05 091350.30  46.65  153.81  33 4.90 mb GS   .. . .......       PDE   1976   08 06 071720.90  46.62  153.76  33 4.90 mb GS   .. . .......       PDE   1976   08 06 072715.20  46.77  153.77  19 5.20 mb GS   .. . .......       PDE   1976   08 07 061720.30  46.61  154.11  40 4.50 mb GS   .. . .......       PDE   1976   08 08 101647     48.32  154.12  41 4.70 mb GS   .. . .......       PDE   1976   08 09 002100.80  46.86  153.47  33 4.60 mb GS   .. . .......       PDE   1976   08 14 190822.90  51.42  156.78  33 4.80 mb GS   .. . .......       PDE   1976   08 15 063828.40  46.56  152.64  33 5.10 mb GS   .. . .......       PDE   1976   08 16 122832.40  51.92  158.43  50 5.30 mb GS   .. . .......       PDE   1976   09 05 005616.20  47.40  153.05  33 4.80 mb GS   .. . .......       PDE   1976   09 12 034945.60  50.18  154.50 146 5.00 mb GS   .. . .......       PDE   1976   09 12 052437.70  44.96  150.37  37 4.70 mb GS   .. . .......       PDE   1976   09 26 063555.50  51.06  157.44  70 4.90 mb GS   .. . .......       PDE   1976   09 30 174115.80  46.73  152.93  58 4.80 mb GS   .. . .......       PDE   1976   10 08 143833.80  49.71  155.96  69 5.20 mb GS   .. . .......       PDE   1976   10 09 025226.40  45.20  153.45  34 5.10 mb GS   .. . .......       PDE   1976   10 10 025858.20  45.31  151.04  38 5.20 mb GS   .. . .......       PDE   1976   10 17 181209     48.19  154.34  33 4.50 mb GS   .. . .......       PDE   1976   10 26 055953     46.06  150.82 120 5.30 mb GS   3F . .......       PDE   1976   10 28 203731.60  48.56  153.19 140 5.20 mb GS   .. . .......       PDE   1976   11 02 192304.80  47.11  150.63  33 5.10 mb GS   .. . .......       PDE   1976   11 06 150051.60  50.01  156.95  33 5.10 mb GS   .. . .......       PDE   1976   11 15 031449.80  49.31  155.60  49 5.30 mb GS   .. . .......       PDE   1976   11 17 053334.60  50.98  156.22 112 5.50 mb GS   .. . .......       PDE   1976   11 23 104636     51.17  159.29  33 5.50 mb GS   .. . .......       PDE   1976   11 29 194439.10  51.17  159.48  46 4.60 mb GS   .. . .......       PDE   1976   12 09 155920.90  51.37  159.39  33 4.70 mb GS   .. . .......       PDE   1976   12 11 003544.30  45.08  150.39  33 4.80 mb GS   .. . .......       PDE   1976   12 19 114345.10  50.70  158.45  33 4.80 mb GS   .. . .......       PDE   1976   12 19 143752.80  46.58  151.57  91 5.30 mb GS   .. . .......       PDE   1976   12 20 183009.90  51.20  158.03  33 5.10 mb GS   .. . .......       PDE   1976   12 30 052158.10  51.28  159.35  24 4.80 mb GS   .. . .......       PDE   1976   12 30 220226     48.21  154.50  41 5.20 mb GS   .. . .......       PDE   1977   01 04 024044     44.71  150.11  53 4.90 mb GS   .. . .......       PDE   1977   01 06 075557.50  49.27  155.55  33 5.40 mb GS   .. . .......       PDE   1977   01 16 033648.80  49.69  156.07  66 4.60 mb GS   .. . .......       PDE   1977   01 24 061121.70  45.48  151.05  33 5.10 mb GS   .. . .......       PDE   1977   01 24 083436.80  45.35  150.35  33 4.80 mb GS   .. . .......       PDE   1977   01 29 191606.50  46.57  152.17  33 4.60 mb GS   .. . .......       PDE   1977   02 01 130303.70  48.17  154.45  42 5.40 mb GS   .. . .......       PDE   1977   02 02 205626     48.11  154.48  33 4.60 mb GS   .. . .......       PDE   1977   02 03 103823.40  45.37  150.44  33 5.50 mb GS   .. . .......       PDE   1977   02 07 213253.90  48.64  150.60 280 4.70 mb GS   .. . .......       PDE   1977   02 08 190545     48.08  154.47  58 4.70 mb GS   .. . .......       PDE   1977   02 13 105556.90  46.92  152.70  33 4.80 mb GS   .. . .......       PDE   1977   02 22 013313.80  51.16  156.54  96 5.10 mb GS   .. . .......       PDE   1977   02 24 163729.60  45.68  150.98  45 5.10 mb GS   .. . .......       PDE   1977   02 26 223256.40  45.17  150.10  33 4.90 mb GS   .. . .......       PDE   1977   03 09 035927.20  46.42  153.87  30 5.20 mb GS   .. . .......       PDE   1977   03 09 041458.60  46.08  154.06  38 5.00 mb GS   .. . .......       PDE   1977   03 12 144205.80  46.58  153.62  17 4.50 mb GS   .. . .......       PDE   1977   03 20 100337.60  45.05  150.16  33 4.90 mb GS   .. . .......       PDE   1977   03 29 042009.30  48.10  152.79 113 4.50 mb GS   .. . .......       PDE   1977   04 11 184618.40  47.28  153.99  34 4.80 mb GS   .. . .......       PDE   1977   04 29 212306.30  48.56  154.99  33 4.70 mb GS   .. . .......       PDE   1977   05 06 035330.20 